84
NP created from ice_models/2.cif. Box Size:   17.95600   31.42300   21.98100
O            8.978022  12.958614   6.872726
O            8.978022  12.958614  14.199726
O            6.733522  16.846202  14.199726
O           11.222500  14.254464  10.536226
O            8.978000  18.142052  10.536226
O            8.978000  10.366876  10.536226
O            6.733500  14.254464  10.536226
O           13.467000  12.958653  11.444774
O           11.222500  16.846241  11.444774
O            6.733500   9.071065  11.444774
O            4.489000  12.958653  11.444774
O            8.978000  12.958653  11.444774
O            6.733500  16.846241  11.444774
O           11.222478  14.254502   7.781274
O           11.222478  14.254502  15.108274
O            8.977978  10.366914   7.781274
O            6.733478  14.254502   7.781274
O            6.733478  14.254502  15.108274
D2          11.222500  15.904123  14.527976
D2           8.978000  12.016535   7.200976
D2           8.978000  12.016535  14.527976
D2           6.733500  15.904123   7.200976
D2           6.733500  15.904123  14.527976
D2          10.406624  13.783443  10.864476
D2           8.162124  17.671031  10.864476
D2           8.162124   9.895855  10.864476
D2           5.917624  13.783443  10.864476
D2           7.549376   9.542085  11.116524
D2           5.304876  13.429673  11.116524
D2           9.793876  13.429673  11.116524
D2           7.549376  17.317261  11.116524
D2           8.162124  13.429673   7.200976
D2           8.162124  13.429673  14.527976
D2          12.038376  13.783443   7.453024
D2           7.549376  13.783443   7.453024
D2           7.549376  13.783443  14.780024
D2          11.222500  15.196582  10.864476
D2           4.489000  11.308994  10.864476
D2           8.978000  11.308994  10.864476
D2           6.733500  15.196582  10.864476
D2          11.222500  15.904123  11.116524
D2           4.489000  12.016535  11.116524
D2           8.978000  12.016535  11.116524
D2           6.733500  15.904123  11.116524
D2           5.304876  13.429673  14.527976
D2           9.793876  13.429673   7.200976
D2           9.793876  13.429673  14.527976
D2          10.406624  13.783443   7.453024
D2          10.406624  13.783443  14.780024
D2           5.917624  13.783443   7.453024
D2           5.917624  13.783443  14.780024
D2          12.038376  13.783443  10.864476
D2           9.793876  17.671031  10.864476
D2           5.304876   9.895855  10.864476
D2           9.793876   9.895855  10.864476
D2           7.549376  13.783443  10.864476
D2          12.651124  13.429673  11.116524
D2          10.406624  17.317261  11.116524
D2           5.917624   9.542085  11.116524
D2           3.673124  13.429673  11.116524
D2          10.406624   9.542085  11.116524
D2           8.162124  13.429673  11.116524
D2           5.917624  17.317261  11.116524
D2          11.222500  15.196582   7.453024
D2          11.222500  15.196582  14.780024
D2           8.978000  11.308994   7.453024
D2           8.978000  11.308994  14.780024
D2           6.733500  15.196582   7.453024
D2           6.733500  15.196582  14.780024
D1          11.222522  16.846202  13.203254
D1           4.489022  12.958614  13.203254
D1           8.978022  12.958614  13.203254
D1           6.733522  16.846202  13.203254
D1          11.222500  14.254464   9.539754
D1           8.978000  18.142052   9.539754
D1           8.978000  10.366876   9.539754
D1           6.733500  14.254464   9.539754
D1          11.222500  16.846241  12.441246
D1           4.489000  12.958653  12.441246
D1           8.978000  12.958653  12.441246
D1           6.733500  16.846241  12.441246
D1          11.222478  14.254502   8.777746
D1           8.977978  10.366914   8.777746
D1           6.733478  14.254502   8.777746
