80
Crystal created from CIF file. Box vectors: a=    7.60000    0.00000    0.00000 b=    7.60000    7.60000    0.00000 c=    2.58688    1.81472    6.91193
O            7.479042   5.246614   4.046936
O           11.681612   8.194754   6.320962
O            5.294727   3.714298   2.864996
O            5.263090   4.378264   6.085265
O            3.065491   2.836629   4.282633
O            6.865491   2.196853   5.112065
O            9.063090   4.331880   6.145399
O            8.371222   2.566976   2.689433
O            5.615663   1.227320   1.656099
O            7.510679   4.582648   0.826667
O            9.708278   6.124283   2.629299
O            5.908278   6.764059   1.799867
O            3.710679   4.629032   0.766533
O            4.402548   6.393936   4.222500
O            1.092157   0.766158   0.590970
O            7.158106   7.733592   5.255833
H            8.019835   7.918516   5.391307
H            6.398295   1.449524   4.976591
H            2.598295   2.515817   3.594205
H            9.232950   2.744969   2.833892
H            9.523770   5.081569   6.289859
H            7.050000   4.252546   0.138239
H            4.753934   1.042396   1.520625
H            6.375475   7.511388   1.935341
H           10.175475   6.445095   3.317728
H            3.540819   6.215943   4.078040
H            3.250000   3.879344   0.622074
H            4.656556   5.665776   4.976591
H            9.661311   3.845188   5.391307
H            5.861311   3.525300   5.806023
H            5.869672   1.771781   0.760313
H            7.463901   2.250371   4.216279
H            9.109868   6.977115   2.350057
H            8.117213   3.295136   1.935341
H            3.112458   5.115724   1.520625
H            6.912458   5.435612   1.105909
H            6.904097   7.189131   6.151620
H            5.309868   6.710541   2.695654
H            5.009081   4.953411   5.529546
H            2.611147   3.271239   4.838353
H            6.411147   2.844721   5.391307
H            8.809081   3.940432   6.842813
H            7.916688   2.461376   3.386847
H            6.070197   0.579584   1.935341
H            7.764688   4.007501   1.382386
H           10.162622   5.689673   2.073580
H            6.362622   6.116191   1.520625
H            3.964688   5.020480   0.069119
H            4.857081   6.499536   3.525086
H            7.023802   7.219790   4.907472
H            7.394327   2.148250   5.460427
H            3.594327   3.161229   4.147159
H            8.236918   2.099558   2.280938
H            8.577868   4.364696   5.736904
H            7.995901   4.969419   0.691193
H            5.749967   1.741122   2.004460
H            5.379442   6.812663   1.451506
H            9.179442   5.799684   2.764773
H            4.536851   6.861354   4.630995
H            4.195901   4.596217   1.175029
H            7.290688   6.020831   4.423637
H           11.017736   8.635389   5.944262
H            4.630852   3.461842   3.386847
H            0.903803   1.327117   1.244148
H            7.942393   4.878568   4.700114
H           11.218261   7.656451   6.842813
H            5.483082   2.940081   2.488296
H            1.756033   0.325523   0.967671
H            8.142917   5.499070   3.525086
H           11.869966   7.633796   5.667785
H            4.831377   4.082344   2.211818
H            6.770098   4.749283   3.663324
H           12.390556   8.692085   6.704575
H            6.003672   4.211629   3.248608
H            5.723770   4.708366   6.773694
H            3.663901   1.983798   4.561875
H            6.703573   8.381328   4.976591
H            4.777868   3.991493   6.220739
H            1.555508   1.304461   0.069119
H            0.383213   0.268827   0.207358
